<?xml version='1.0' encoding='UTF-8'?>
<routes xmlns:xsi="http://www.w3.org/2001/XMLSchema-instance" xsi:noNamespaceSchemaLocation="http://sumo.dlr.de/xsd/routes_file.xsd">
    <vType id="veh_passenger" vClass="passenger" />
    <trip id="veh0" type="veh_passenger" depart="0.01" departLane="best" from="29554117#1" to="-1156480289#1" />
    <trip id="veh1" type="veh_passenger" depart="0.01" departLane="best" from="-4215663#1" to="-368990039#6" />
    <trip id="veh2" type="veh_passenger" depart="0.01" departLane="best" from="374687792#0" to="32112418#1" />
    <trip id="veh3" type="veh_passenger" depart="0.01" departLane="best" from="53750891#0" to="-176950773" />
    <trip id="veh4" type="veh_passenger" depart="0.01" departLane="best" from="1015112056#0" to="-1178133210" />
    <trip id="veh5" type="veh_passenger" depart="0.01" departLane="best" from="-116689248#1" to="-32654294#2" />
    <trip id="veh6" type="veh_passenger" depart="0.01" departLane="best" from="30454726#0" to="158518176#4" />
    <trip id="veh7" type="veh_passenger" depart="0.01" departLane="best" from="4385874#0" to="-10570412#0" />
    <trip id="veh8" type="veh_passenger" depart="0.01" departLane="best" from="43034941#0" to="33924203#0" />
    <trip id="veh9" type="veh_passenger" depart="0.01" departLane="best" from="-540660003#1" to="-295657116#3" />
    <trip id="veh10" type="veh_passenger" depart="0.01" departLane="best" from="7990022#0" to="-52375060#2" />
    <trip id="veh11" type="veh_passenger" depart="0.01" departLane="best" from="-200170062#3" to="-21254320#0" />
    <trip id="veh12" type="veh_passenger" depart="0.01" departLane="best" departSpeed="max" from="481224210" to="23948203#0" />
    <trip id="veh13" type="veh_passenger" depart="0.01" departLane="best" from="43180229#0" to="37096955#2" />
    <trip id="veh14" type="veh_passenger" depart="0.01" departLane="best" from="14047779#0" to="8589676#0" />
    <trip id="veh15" type="veh_passenger" depart="0.01" departLane="best" from="-775616073#3" to="18958443#1" />
    <trip id="veh16" type="veh_passenger" depart="0.01" departLane="best" from="4539008#2" to="259223933#0" />
    <trip id="veh17" type="veh_passenger" depart="0.01" departLane="best" from="4926004#0" to="228818590#0" />
    <trip id="veh18" type="veh_passenger" depart="0.01" departLane="best" from="356748753#0" to="-125880830#9" />
    <trip id="veh19" type="veh_passenger" depart="0.01" departLane="best" from="-3708469#0" to="-44115695" />
    <trip id="veh20" type="veh_passenger" depart="0.01" departLane="best" from="-22715410#1" to="-423711652#0" />
    <trip id="veh21" type="veh_passenger" depart="0.01" departLane="best" from="29266714#1" to="-662476686#1" />
    <trip id="veh22" type="veh_passenger" depart="0.01" departLane="best" from="-70864293#0" to="-35060878#4" />
    <trip id="veh23" type="veh_passenger" depart="0.01" departLane="best" from="-39944039#2" to="732482191#2" />
    <trip id="veh24" type="veh_passenger" depart="0.01" departLane="best" from="30442757#10" to="24753714#1" />
    <trip id="veh25" type="veh_passenger" depart="0.01" departLane="best" from="-317003253#0" to="3709025#0" />
    <trip id="veh26" type="veh_passenger" depart="0.01" departLane="best" from="-30454721#1" to="-779185321#4" />
    <trip id="veh27" type="veh_passenger" depart="0.01" departLane="best" from="935184669" to="295635796" />
    <trip id="veh28" type="veh_passenger" depart="0.01" departLane="best" from="471170408#0" to="39006898#3" />
    <trip id="veh29" type="veh_passenger" depart="0.01" departLane="best" from="-4834977" to="-401904747#1" />
    <trip id="veh30" type="veh_passenger" depart="0.01" departLane="best" from="-354380392#1" to="764347617" />
    <trip id="veh31" type="veh_passenger" depart="0.01" departLane="best" from="49974590" to="-4825365" />
    <trip id="veh32" type="veh_passenger" depart="0.01" departLane="best" from="31008971#2" to="-81752831#2" />
    <trip id="veh33" type="veh_passenger" depart="0.01" departLane="best" from="60067109" to="1162921058" />
    <trip id="veh34" type="veh_passenger" depart="0.01" departLane="best" from="-39406421#4" to="-3785446#2" />
    <trip id="veh35" type="veh_passenger" depart="0.01" departLane="best" from="20848452" to="-39034928" />
    <trip id="veh36" type="veh_passenger" depart="0.01" departLane="best" from="22974131#0" to="54690623" />
    <trip id="veh37" type="veh_passenger" depart="0.01" departLane="best" from="-857310738#4" to="-368729644#1" />
    <trip id="veh38" type="veh_passenger" depart="0.01" departLane="best" from="978240451" to="128946815#8" />
    <trip id="veh39" type="veh_passenger" depart="0.01" departLane="best" from="-192108787#1" to="-1258924470" />
    <trip id="veh40" type="veh_passenger" depart="0.01" departLane="best" from="-228818596#2" to="275899554#3" />
    <trip id="veh41" type="veh_passenger" depart="0.01" departLane="best" from="421226013#0" to="1015112056#3" />
    <trip id="veh42" type="veh_passenger" depart="0.01" departLane="best" from="8468553#6" to="4919196" />
    <trip id="veh43" type="veh_passenger" depart="0.01" departLane="best" from="-1086085191" to="369214165#4" />
    <trip id="veh44" type="veh_passenger" depart="0.01" departLane="best" from="-399344213#0" to="298356700#0" />
    <trip id="veh45" type="veh_passenger" depart="0.01" departLane="best" from="1138508583#0" to="7988564#2" />
    <trip id="veh46" type="veh_passenger" depart="0.01" departLane="best" from="127359262" to="-317619308#1" />
    <trip id="veh47" type="veh_passenger" depart="0.01" departLane="best" from="-4539008#4" to="29554114#3" />
    <trip id="veh48" type="veh_passenger" depart="0.01" departLane="best" from="24555658#0" to="-29429548#0" />
    <trip id="veh49" type="veh_passenger" depart="0.01" departLane="best" from="3792286#0" to="143991359#4" />
    <trip id="veh50" type="veh_passenger" depart="0.01" departLane="best" from="39245038#2" to="13904659" />
    <trip id="veh51" type="veh_passenger" depart="0.01" departLane="best" from="-1108004310#1" to="681222248#1" />
    <trip id="veh52" type="veh_passenger" depart="0.01" departLane="best" from="506780985#0" to="4539023#0" />
    <trip id="veh53" type="veh_passenger" depart="0.01" departLane="best" from="-4629069#3" to="-128946815#13" />
    <trip id="veh54" type="veh_passenger" depart="0.01" departLane="best" from="-166281799#2" to="1254863950#0" />
    <trip id="veh55" type="veh_passenger" depart="0.01" departLane="best" from="-137569844#0" to="3791421#0" />
    <trip id="veh56" type="veh_passenger" depart="0.01" departLane="best" from="124755307#3" to="18641410#0" />
    <trip id="veh57" type="veh_passenger" depart="0.01" departLane="best" from="-39417191" to="49728142#2" />
    <trip id="veh58" type="veh_passenger" depart="0.01" departLane="best" from="-32744354#1" to="-481221028#2" />
    <trip id="veh59" type="veh_passenger" depart="0.01" departLane="best" from="9659314#1" to="30466178" />
    <trip id="veh60" type="veh_passenger" depart="0.01" departLane="best" from="1086173220#2" to="129313726" />
    <trip id="veh61" type="veh_passenger" depart="0.01" departLane="best" from="-23102758#6" to="-369622780" />
    <trip id="veh62" type="veh_passenger" depart="0.01" departLane="best" from="-138422982" to="283145334#0" />
    <trip id="veh63" type="veh_passenger" depart="0.01" departLane="best" from="-3708539#1" to="55814725#2" />
    <trip id="veh64" type="veh_passenger" depart="0.01" departLane="best" from="4919459#2" to="-138408339#1" />
    <trip id="veh65" type="veh_passenger" depart="0.01" departLane="best" from="-37609976#1" to="318601731" />
    <trip id="veh66" type="veh_passenger" depart="0.01" departLane="best" from="-363177790#1" to="-24616694#1" />
    <trip id="veh67" type="veh_passenger" depart="0.01" departLane="best" from="12341215#3" to="405573988#0" />
    <trip id="veh68" type="veh_passenger" depart="0.01" departLane="best" from="-219416171#1" to="1064203144#1" />
    <trip id="veh69" type="veh_passenger" depart="0.01" departLane="best" from="10278921#3" to="119860706" />
    <trip id="veh70" type="veh_passenger" depart="0.01" departLane="best" from="3708865#0" to="31992219#0" />
    <trip id="veh71" type="veh_passenger" depart="0.01" departLane="best" from="914837894" to="-22463054#1" />
    <trip id="veh72" type="veh_passenger" depart="0.01" departLane="best" from="-8684633#4" to="-530962822#1" />
    <trip id="veh73" type="veh_passenger" depart="0.01" departLane="best" from="4926004#0" to="-3788308#3" />
    <trip id="veh74" type="veh_passenger" depart="0.01" departLane="best" from="-3238213#1" to="1109167839#2" />
    <trip id="veh75" type="veh_passenger" depart="0.01" departLane="best" from="42294218#1" to="-316970029#1" />
    <trip id="veh76" type="veh_passenger" depart="0.01" departLane="best" from="-3789941" to="64272631#0" />
    <trip id="veh77" type="veh_passenger" depart="0.01" departLane="best" from="18641410#3" to="-127359210#3" />
    <trip id="veh78" type="veh_passenger" depart="0.01" departLane="best" from="991508614" to="4541293#0" />
    <trip id="veh79" type="veh_passenger" depart="0.01" departLane="best" from="83804975#0" to="67138618" />
    <trip id="veh80" type="veh_passenger" depart="0.01" departLane="best" from="1254863949#0" to="-362985328#0" />
    <trip id="veh81" type="veh_passenger" depart="0.01" departLane="best" from="-865406659#0" to="-129211786#2" />
    <trip id="veh82" type="veh_passenger" depart="0.01" departLane="best" from="-77799822" to="917824442#0" />
    <trip id="veh83" type="veh_passenger" depart="0.01" departLane="best" from="-39417192#5" to="405364257#0" />
    <trip id="veh84" type="veh_passenger" depart="0.01" departLane="best" from="1153286998#0" to="1017655141#6" />
    <trip id="veh85" type="veh_passenger" depart="0.01" departLane="best" from="197054710#1" to="36893606#2" />
    <trip id="veh86" type="veh_passenger" depart="0.01" departLane="best" from="-29555447" to="-44540615#4" />
    <trip id="veh87" type="veh_passenger" depart="0.01" departLane="best" from="8285788" to="22944428" />
    <trip id="veh88" type="veh_passenger" depart="0.01" departLane="best" from="128185886#2" to="482776532#0" />
    <trip id="veh89" type="veh_passenger" depart="0.01" departLane="best" from="-30047537" to="8009855#3" />
    <trip id="veh90" type="veh_passenger" depart="0.01" departLane="best" from="-14507246#3" to="-31992229#0" />
    <trip id="veh91" type="veh_passenger" depart="0.01" departLane="best" from="231630881#1" to="32016058#1" />
    <trip id="veh92" type="veh_passenger" depart="0.01" departLane="best" from="-37248089#2" to="-23076537#2" />
    <trip id="veh93" type="veh_passenger" depart="0.01" departLane="best" from="530962821#4" to="-378365537#1" />
    <trip id="veh94" type="veh_passenger" depart="0.01" departLane="best" from="231613865#0" to="261557486#0" />
    <trip id="veh95" type="veh_passenger" depart="0.01" departLane="best" from="13287391#0" to="722047537#3" />
    <trip id="veh96" type="veh_passenger" depart="0.01" departLane="best" from="-33238656" to="368755030#0" />
    <trip id="veh97" type="veh_passenger" depart="0.01" departLane="best" from="3191572#1" to="-4539265#1" />
    <trip id="veh98" type="veh_passenger" depart="0.01" departLane="best" from="-48455140#1" to="3787045#0" />
    <trip id="veh99" type="veh_passenger" depart="0.01" departLane="best" from="-13866376#5" to="1162920541#0" />

</routes>
